sistemas/01J20L.txt
CEPEL - Centro de Pesquisas de Energia Eletrica - ANAREDE V11.07.02

 ONS - MENSAL - JANEIRO 2020 - Leve                                              
 RELATORIO DE EXECUCAO DO FLUXO DE POTENCIA CONTINUADO

 Opcoes Ativadas: QLIM VLIM CREM CTAP STEP BPSI NEWT RCVG RMON FILE 80CO CONT CELO STPO CTAF CTAF IANG

 X----X----------------X--------------------------X-------------X---------X
                            AUMENTO DA CARGA                               
  NUM.   CONVERGENCIA        ATIVA E REATIVA (%)   CARGA DA AREA PASSO MAX 
          STATUS    P/Q  MAXIMO    AREA    SISTEMA   MW / Mvar    P/Q (%)  
 X----X------------X---X--------X--------X--------X-------------X---------X

     0 Convergente    4    0.000    0.000    0.000 57601.26 MW      0.5000
                      4    0.000    0.000    0.000 14419.63 Mvar    0.5000
     1 Convergente   16    0.500    0.500    0.500 57889.16 MW      0.5000
                     16    0.500    0.500    0.500 14491.72 Mvar    0.5000
     2 Convergente   15    1.000    1.000    1.000 58177.05 MW      0.5000
                     15    1.000    1.000    1.000 14563.81 Mvar    0.5000
     3 Convergente   14    1.500    1.499    1.499 58464.95 MW      0.5000
                     14    1.500    1.500    1.500 14635.90 Mvar    0.5000
     4 Nao Converg. 101                                             0.5000
                    101                                             0.5000
     5 Convergente   13    1.750    1.749    1.749 58608.90 MW      0.2500
                     13    1.750    1.750    1.750 14671.94 Mvar    0.2500
     6 Nao Converg. 101                                             0.2500
                    101                                             0.2500
     7 Nao Converg. 101                                             0.1250
                    101                                             0.1250
     8 Convergente    9    1.813    1.812    1.812 58644.88 MW      0.0625
                      9    1.813    1.812    1.812 14680.95 Mvar    0.0625
     9 Nao Converg. 101                                             0.0625
                    101                                             0.0625
    10 Nao Converg. 101                                             0.0312
                    101                                             0.0312
    11 Nao Converg. 101                                             0.0156
                    101                                             0.0156
    12 Nao Converg. 101                                             0.0078
                    101                                             0.0078
    13 Nao Converg. 101                                             0.0039
                    101                                             0.0039
 
 Atingido incremento minimo
CEPEL - Centro de Pesquisas de Energia Eletrica - ANAREDE V11.07.02

 ONS - MENSAL - JANEIRO 2020 - Leve                                              
 SUMARIO DO SISTEMA ELETRICO

 X-----X-----X-----X-----X-----X-----X-----X-----X-----X-----X-----X-----X-----X-----X-----X-----X-----X-----X-----X-----X
   AREA  BAR   GER   GEI   SHT   BSB   REM   CAR   CAI   MOT   F/R   CIR   TRF   TRD   CSC   SHL   BSL   TIE   CER   INT
 X-----X-----X-----X-----X-----X-----X-----X-----X-----X-----X-----X-----X-----X-----X-----X-----X-----X-----X-----X-----X

      1   244    33     0     0    60     4     0     0     0     0   531   248     2     1    44    20   179     5   316
      2   115    18     0     0    22     0     0     0     0     0   199   126     1     0     6     9    59     3   110
      3   392   100     0     2    34     0     0     0     0     0   501    64     0     0     0     0    45     0    94
      4    57     0     0     0    31     0     0     0     0     0   151    89     0     0     2     4    34     0    96
      5    73     2     0     0    26     0     0     0     0     0   257   100     0     0     3    20   132     1   256
      6   468     0     0     0    16     0     0     0     0     0   941    46     0     0     0     0   453     0   664
      7   353    19     0     0    47     0     0     0     0     0   427    22     0     0     0     0    83     0   167
      8     9     8     0     0     0     0     0     0     0     0     7     6     0     0     0     0     6     0    11
      9   319     6     0     0     4     0     0     0     0     0   445     0     0     0     0     0    60     0   106
     10    93    16     0     0    43     0     0     0     0     0   140    22     0     0     0     0    19     0    48
     11   139    14     0     0    24     0     0     0     0     0   203    58     1     0     0     0    30     0    43
     12   136     7     0     0    28     0     0     0     0     0   160    61     0     0     0     0    36     0    87
     13   115     1     0     0    45     0     0     0     0     0   206    99     0     0     0     0    18     0    28
     14    10    10     0     0     0     0     0     0     0     0     0     0     0     0     0     0     0     0    10
     15    11     9     0     0     0     0     0     0     0     0     3     2     0     0     0     0     1     0    11
     16     1     0     0     0     0     0     0     0     0     0     0     0     0     0     0     0     0     0     1
     17     4     1     0     0     2     0     0     0     0     0     9     1     0     0     0     0     0     0     0
     18    44    13     0     0    26     0     0     0     0     0    45    12     1     0     0     0     1     0     6
     19    21    18     0     0     0     0     0     0     0     0    21    19     0     0     0     0    17     0    19
     20   113     9     0     0    18     0     0     0     0     0   306   138     0     0     8     9   126     1   272
     21    57     9     0     1     8     0     0     0     0     0   174   101     0     0     0     0   111     0   165
     22   293    38     0     0   175     0     0     0     0     0   351    34     0     0     0     0    18     0   110
     23    70     7     0     0    18     0     0     0     0     0   233   127     0     0     2     4   154     0   203
     24   112     2     0     0    53     0     0     0     0     0   104     8     0     0     0     0    10     0    69
     25   211    55     0     0   170     0     0     0     0     0   290    40     0     0     0     0    61     0    98
     26   122     5     0     0    34     0     0     0     0     0   169    67     0     0     0     8    40     0    64
     27    19    16     0     0     0     0     0     0     0     0    25    13     0     0     0     0    11     0    16
     28    22     3     0     0     0     0     0     0     0     0    18     0     0     0     0     0    18     0    23
     29    33     4     0     0     0     0     0     0     0     0    14     0     0     0     0     0    12     0    50
     30   271    21     0     0     1     0     0     0     0     0   209     3     0     0     0     0   119     0   346
     31   167    19     0     0   128     0     0     0     0     0   159    39     0     0     0     0    31     0   139
     33     2     0     0     0     0     0     0     0     0     0     3     0     0     0     2     1     2     0     2
     34     2     2     0     0     0     0     0     0     0     0     2     2     0     0     0     0     2     0     2
     35    34     5     0     0     4     0     0     0     0     0    11     6     0     0     0     0     6     0    54
     36    17     2     0     0     1     0     0     0     0     0     2     0     0     0     0     0     2     0    28
     37    12     3     0     0     0     0     0     0     0     0    10     6     0     0     0     0     0     0    10
     38    32     8     0     0     1     0     0     0     0     0    56    30     0     0     1     0    19     0    48
     39    93    35     0     0    17     0     0     0     0     0   107    60     0     0     3     2    33     0    54
     40    17     8     0     0     0     0     0     0     0     0    27     9     0     0     0     0    12     0    31
     41    83    37     0     0    11     0     0     0     0     0    92    58     0     0     2     0    20     0    76
     42    40     0     0     0     4     0     0     0     0     0    35     0     0     0     0     0    15     0    37
     44     2     2     0     0     0     0     0     0     0     0     0     0     0     0     0     0     0     0     2
     45    86     4     0     0    12     0     0     0     0     0   131    84     0     0    26     4    24     2    55
     46   227    25     0     0    31     0     0     0     0     0   277   137     0     0     1     7    48     0    95
     47    99    12     0     0    28     3     0     0     0     0   148    98     0     0    15     6    11     2    16
     48    27     3     0     0    13     0     0     0     0     0    30    17     0     0     0     0     6     0    14
     49   163    75     0     0    14     0     0     0     0     0   172    68     0     0    37     2    46     2    92
     51    33    16     0     0     1     0     0     0     0     0    49    27     0     0     6     1    16     0    34
     52    21     0     0     0     0     0     0     0     0     0    25     7     0     0     0     0     1     0     4
     53   227    74     0     0    73     7     0     0     0     0   297   148     0     0    20     2     7     3    12
     54   154    22     0     0    19     0     0     0     0     0   257   150     0     0     9     2     8     2    10
     55   362    85     0     0    92     0     0     0     0     0   526   282     0     0     8    13     6     3    18
     56   183    50     0     0    52     2     0     0     0     0   268   144     0     0    27     0     5     4    12
     57   128    28     0     0    38     4     0     0     0     0   170    94     0     0    26     4    11     2    18
     58   140    22     0     1    14     0     0     0     0     0   180   111     0     0    28     2    17     0    35
     59   155    20     0     0    16     9     0     0     0     0   208   134     0     0    20     1     5     0    20
     61     8     0     0     0     2     0     0     0     0     0    25    11     0     0     0     0    19     2    19
     62     3     0     0     0     0     0     0     0     0     0     3     3     0     0     0     0     3     0     6
     63    52     2     0     0     8     0     0     0     0     0    65    14     0     2    24     0     6     0    19
     64    12     7     0     0     0     0     0     0     0     0    14     7     0     0     0     0     7     0     9
     65     3     0     0     0     0     0     0     0     0     0     0     0     0     0     0     0     0     0     5
     66    14     1     0     0     5     0     0     0     0     0    11     2     0     0     0     0     4     0    12
     67    28     0     0     0     4     0     0     0     0     0    61    28     0     0    16     2    27     1    42
     68    10     2     0     0     1     0     0     0     0     0    11     6     0     0     0     0     2     0     7
     69     4     3     0     0     0     0     0     0     0     0     2     0     0     0     0     0     2     0     8
     70     2     1     0     0     0     0     0     0     0     0     3     1     0     0     0     0     2     0     2
     71    52    12     0     0     6     1     0     0     0     0    67    31     2     0     5     1    34     2    88
     72    53     6     0     0     5     0     0     0     0     0    62    17     0     0     4     2    20     1    48
     73    98    37     0     0     3     0     0     0     0     0   103    52     0     0     6     2    36     1    64
     74    12     0     0     0     1     0     0     0     0     0    40    29     0     0     0     0    31     0    52
     75    18     6     0     0     2     0     0     0     0     0    31    18     0     0     0     0    22     0    32
     80    64     5     0     0    12     0     0     0     0     0    91    41     0     0    20     1    13     4    18
     81    12     5     0     0     4     0     0     0     0     0    15     5     0     0     0     1     0     0     1
     82    21     6     0     0     2     0     0     0     0     0    24    15     0     0     0     0     1     0     5
     85    59    10     0     0     1     0     0     0     0     0    85    41     0     0     0     1     9     0    19
     86    22     7     0     0     3     0     0     0     0     0    29     5     0     0     0     0     2     0     9
    124    21     2     0     0     3     0     0     0     0     0     8     2     0     0     0     0     6     0    21
    125     2     0     0     0     0     0     0     0     0     0     2     0     0     0     0     0     2     0     2
    126    47    36     0     0     0     0     0     0     0     0    37    21     0     0     0     3    13     0    38
    999     1     0     0     0     0     0     0     0     0     0     0     0     0     0     0     0     0     0     1
 X-----X-----X-----X-----X-----X-----X-----X-----X-----X-----X-----X-----X-----X-----X-----X-----X-----X-----X-----X-----X
  TOTAL  7051  1149     0     4  1516    30     0     0     0     0 10170  3566     7     3   371   134  2467    41
  MAX.  20000  6000 24000  8000  5000  1000 10000 40000  2000  5000 40000 16000  3000   400  4000  5000 28000   400
 X-----X-----X-----X-----X-----X-----X-----X-----X-----X-----X-----X-----X-----X-----X-----X-----X-----X-----X-----X-----X
CEPEL - Centro de Pesquisas de Energia Eletrica - ANAREDE V11.07.02

 ONS - MENSAL - JANEIRO 2020 - Leve                                              
 RELATORIO DE COMPENSADORES ESTATICOS DE REATIVO

 X-------------------------X-----X-----X--------------------X------------X---X--X--X---X---X
       B  A  R  R  A        Incl.   Vo     GERACAO Mvar      BARRA CONTR. TIP No No
   Num.     Nome     Tensao  (%)   p.u. Minima  Mvar  Maxima  Num. Tensao C O Un Gr EST LMT
 X-----X------------X------X-----X-----X------X------X------X-----X------X-X-X--X--X---X---X

     42 BAND-1CER345  0.991  2.00 0.984  -49.1  -35.0   98.2    42  0.991 I L  1  1 LIG    
     43 BAND-2CER345  0.991  2.00 0.984  -49.1  -35.0   98.2    43  0.991 I L  1  2 LIG    
     46 CAMPOSCER345  1.010  2.00 1.000  -51.0  -49.7  102.0    46  1.010 I L  1  3 LIG    
     55 BALTO-CER230  1.006  4.00 1.003  -22.3   -7.2   33.4    55  1.006 I L  1  4 LIG    
    389 OPRET2CER013  0.949  1.00 1.003  -72.1  -72.1   18.0   386  1.028 I I  1 10 LIG    
    499 F.DIASCER500  1.077  0.22 1.077 -174.0    0.0  348.0   499  1.077 P    1 10 DES    
    567 SBARBA-SP440  0.984  0.83 1.006 -290.4  266.9  290.4   567  0.984 P L  1  1 LIG    
    597 BAURU-CER440  1.014  0.43 0.994 -128.5 -128.5  257.1   597  1.014 P I  1 10 LIG    
   1078 ANASTACER230  1.000  2.00 0.986  -50.0  -50.0   50.0  1078  1.000 I I  1  1 LIG    
   1490 BDESP3CER500  1.066  1.00 1.021 -227.5 -227.5  341.2  1490  1.066 P I  1 10 LIG    
   1889 IMBIRUCER230  0.972  2.00 0.970  -94.5   -9.6   94.5  1889  0.972 P L  1  1 LIG    
   3026 LUZIA-CER500  1.066  1.00 1.049 -170.4 -169.0  340.8  3007  1.066 P L  1  1 LIG    
   3344 P.FIAL-MG345  1.006  1.05 0.985  -93.1  -93.1  104.5  3344  1.006 P I  1 10 LIG    
   4093 SDUMO2CER345  0.995  2.72 0.971  -83.2  -83.2   99.1  4093  0.995 I I  1 10 LIG    
   4530 COXIPOCER230  1.009  0.01 1.009  -50.9   14.7   71.3  4530  1.009 I L  1 10 LIG    
   4582 SINOP--MT230  1.007  0.80 1.007  -20.3   -3.8   55.8  4582  1.007 P L  1 10 LIG    
   4665 PARTG-CER500  1.026  0.01 1.026 -210.5  205.7  210.5  4665  1.026 I L  1 10 LIG    
   4677 RVNRT-CER500  1.024  0.33 1.022 -209.9  -76.1  314.9  4677  1.024 I L  1 10 LIG    
   5239 CGD---CER230  1.015  0.01 1.015    0.0    1.9  198.4  5222  1.015 I L  1 10 LIG    
   5410 MILAGRCER230  1.001  5.00 1.010  -88.2   18.3   97.6  5410  1.001 I L  1 10 LIG    
   5450 FORTALCER230  0.992  1.50 1.000 -172.1   54.2  186.5  5450  0.992 I L  1 10 LIG    
   5480 SOBRA3-CE500  1.065  1.00 1.049 -170.0    0.0  283.3  5480  1.065 P L  1 10 DES    
   5551 SLUIS2-MA230  1.045  2.00 1.020 -123.4    0.0  181.7  5551  1.045 P I  1 10 DES    
   5551 SLUIS2-MA230  1.045  2.00 1.020 -109.2 -109.2  163.8  5551  1.045 P I  1 20 LIG    
   5611 TAUA2--CE230  0.980  2.22 0.980  -43.2    0.1   86.4  5611  0.980 I L  1 10 LIG    
   5679 PNBIII-PI500  1.051  2.00 1.040 -165.7  -54.5  331.3  5679  1.051 P L  1 90 LIG    
   5681 E.MART-PI230  1.012  3.00 1.010  -20.5   -7.3   30.7  5681  1.012 P L  1 10 LIG    
   5902 FUNIL--BA230  1.017  1.00 1.020 -117.9   31.1  232.7  5902  1.017 P L  1 10 LIG    
   6060 GENDO2-BA500  1.053  1.00 1.050 -111.0  -36.5  222.0  6060  1.053 I L  1 10 LIG    
   6131 EXTREM-RN230  1.010  1.00 1.010  -76.5    1.5  153.0  6131  1.010 I L  1 10 LIG    
   6132 CEAMIR-RN230  1.000  3.00 1.000  -75.1   -1.6  150.1  6132  1.000 I L  1 10 LIG    
   6290 M.CHAP-BA500  1.035  1.00 1.040 -107.2   49.8  214.3  6290  1.035 I L  1 10 LIG    
   6349 BJLAP2-BA500  1.047  0.80 1.050 -273.8   43.4  273.8  6349  1.047 P L  1 10 LIG    
   6368 SAPEAC-BA230  0.995  0.80 1.000 -148.6   59.8  247.6  6368  0.995 P L  1 10 LIG    
   6609 ITATIB-SP500  1.029  1.00 1.036 -317.5   73.8  317.5  6609  1.029 I L  1  1 LIG    
   6800 VILHEN-RO230  1.040  2.00 1.024  -54.1  -54.1  108.2  6800  1.040 I I  1 10 LIG    
   6950 R.BRAN-AC230  1.010  2.00 0.993  -20.4  -20.4   56.1  6950  1.010 P I  1 10 LIG    
   8265 JURUPACER500  1.028  1.00 0.997 -233.5 -233.5  234.1  8265  1.028 P I  1 10 LIG    
   8285 MACAPACER230  1.010  1.25 1.016 -113.2   49.6  180.1  8285  1.010 P L  1 10 LIG    
   8365 ORIXIMCER500  1.027  0.67 1.025 -232.9  -22.9  350.2  8365  1.027 P L  1 10 LIG    
   8465 SILVESCER500  1.021  0.67 1.010 -208.6 -171.0  312.9  8465  1.021 I L  1 10 LIG    
CEPEL - Centro de Pesquisas de Energia Eletrica - ANAREDE V11.07.02

 ONS - MENSAL - JANEIRO 2020 - Leve                                              
 RELATORIO DE GERADOR * AREA   1 * FURNAS                              

 X------------X------X-----------------------X----X------X-------X
     BARRA     TENSAO         GERACAO         LIM. PARTIC  BARRA
  NUM.    TIPO   MOD     MIN     MW      MAX   MW    GER  CONTROL
      NOME       ANG     MIN    Mvar     MAX  Mvar  EQUIV   MVA
 X------------X------X-------X-------X-------X----X------X-------X

     30     -1  1.000     0.0     0.0 99999.0   I     0.0      30
  SCRU19UTE000  -30.4     0.0     0.0     0.0   =     0.0     0.0
     31     -1  0.957     0.0     0.0 99999.0   I     0.0      31
  SCRU13UTE000  -30.4     0.0     0.0     0.0   =     0.0     0.0
     32     -1  1.000     0.0     0.0 99999.0   I     0.0      32
  SCRU16UTE000  -30.4     0.0     0.0     0.0   =     0.0     0.0
     37     -1  0.991     0.0     0.0 99999.0   I     0.0      37
  S.MESASIN001   19.0     0.0     0.0     0.0   =     0.0     0.0
    201     -1  0.990     0.0     0.0 99999.0   I     0.0     201
  RSIL-1UTE001  -42.3     0.0     0.0     0.0   =     0.0     0.0
    203     -1  0.990     0.0     0.0 99999.0   I     0.0     203
  RSIL-2UTE001  -42.3     0.0     0.0     0.0   =     0.0     0.0
   7151     -1  1.000     0.0     0.1 99999.0         0.0    7151
  FSOLARUFV000   29.4     0.0     0.0     0.0   =     0.0     0.1
   9500     -1  0.990     0.0     0.0 99999.0   I     0.0    9500
  SIMPL-UHE000  -46.9     0.0     0.0     0.0   =     0.0     0.0




 RELATORIO DE GERADOR * AREA   2 * CEMIG GT                            

 X------------X------X-----------------------X----X------X-------X
     BARRA     TENSAO         GERACAO         LIM. PARTIC  BARRA
  NUM.    TIPO   MOD     MIN     MW      MAX   MW    GER  CONTROL
      NOME       ANG     MIN    Mvar     MAX  Mvar  EQUIV   MVA
 X------------X------X-------X-------X-------X----X------X-------X

   1500     -1  0.944     0.0     0.0 99999.0   I     0.0    1500
  IGARAPUTE000  -23.9     0.0     0.0     0.0   =     0.0     0.0
   9034     -1  1.014     0.0     0.0 99999.0   I     0.0    9034
  EMBORCSIN002    7.2     0.0     0.0     0.0   =     0.0     0.0
   9035     -1  0.993     0.0     0.0 99999.0   I     0.0    9035
  NPONTESIN002    4.4     0.0     0.0     0.0   =     0.0     0.0
   9041     -1  1.005     0.0     0.0 99999.0   I     0.0    9041
  IRAPE-SIN000   -2.4     0.0     0.0     0.0   =     0.0     0.0




 RELATORIO DE GERADOR * AREA   3 * CEMIG D                             

 X------------X------X-----------------------X----X------X-------X
     BARRA     TENSAO         GERACAO         LIM. PARTIC  BARRA
  NUM.    TIPO   MOD     MIN     MW      MAX   MW    GER  CONTROL
      NOME       ANG     MIN    Mvar     MAX  Mvar  EQUIV   MVA
 X------------X------X-------X-------X-------X----X------X-------X

   1483     -1  0.990     0.0    31.4 99999.0         0.0    1483
  BEVAP-BIO138    2.3     0.0     0.0     0.0   =     0.0    31.4
   1585     -1  0.958     0.0     0.0 99999.0   I     0.0    1585
  IBIR-GUTE000  -24.1     0.0     0.0     0.0   =     0.0     0.0
   1586     -1  0.958     0.0     0.0 99999.0   I     0.0    1586
  IBIRITUTE000  -24.1     0.0     0.0     0.0   =     0.0     0.0
   4035     -1  0.988     0.0     0.0 99999.0   I     0.0    4035
  SJUDA-UTE000  -11.7     0.0     0.0     0.0   =     0.0     0.0
   4348     -1  0.993     0.0    61.9 99999.0         0.0    4348
  VAZAN-UFV138    4.1     0.0     0.0     0.0   =     0.0    61.9
   4371     -1  1.006     0.0     0.0 99999.0   I     0.0    4371
  WDPCT-BIO138   -1.8     0.0     0.0     0.0   =     0.0     0.0
   9099     -1  0.997     0.0    16.8 99999.0         0.0    9099
  CACHOEPCH069  -31.3     0.0     0.0     0.0   =     0.0    16.8




 RELATORIO DE GERADOR * AREA   9 * LIGHT SESA                          

 X------------X------X-----------------------X----X------X-------X
     BARRA     TENSAO         GERACAO         LIM. PARTIC  BARRA
  NUM.    TIPO   MOD     MIN     MW      MAX   MW    GER  CONTROL
      NOME       ANG     MIN    Mvar     MAX  Mvar  EQUIV   MVA
 X------------X------X-------X-------X-------X----X------X-------X

   3797     -1  1.020     0.0    13.0 99999.0         0.0    3797
  LAJES-PCH013  -33.2     0.0     0.0     0.0   =     0.0    13.0




 RELATORIO DE GERADOR * AREA  10 * ENEL DISTRIBUICAO RIO               

 X------------X------X-----------------------X----X------X-------X
     BARRA     TENSAO         GERACAO         LIM. PARTIC  BARRA
  NUM.    TIPO   MOD     MIN     MW      MAX   MW    GER  CONTROL
      NOME       ANG     MIN    Mvar     MAX  Mvar  EQUIV   MVA
 X------------X------X-------X-------X-------X----X------X-------X

   9038     -1  1.022     0.0     5.3 99999.0         0.0    9038
  SANTONPCH069  -39.2     0.0     0.0     0.0   =     0.0     5.3




 RELATORIO DE GERADOR * AREA  11 * EDP ES                              

 X------------X------X-----------------------X----X------X-------X
     BARRA     TENSAO         GERACAO         LIM. PARTIC  BARRA
  NUM.    TIPO   MOD     MIN     MW      MAX   MW    GER  CONTROL
      NOME       ANG     MIN    Mvar     MAX  Mvar  EQUIV   MVA
 X------------X------X-------X-------X-------X----X------X-------X

   2901     -1  1.004     0.0     6.0 99999.0         0.0    2901
  SPED--PCH013  -39.1     0.0     0.0     0.0   =     0.0     6.0
   2903     -1  1.037     0.0     3.0 99999.0         0.0    2903
  SJOAO2PCH013  -40.3     0.0     0.0     0.0   =     0.0     3.0
   2905     -1  1.089     0.0     4.0 99999.0         0.0    2905
  SSIM1-PCH013  -36.0     0.0     0.0     0.0   =     0.0     4.0
   2917     -1  1.061     0.0    12.0 99999.0         0.0    2917
  PGARRAPCH013  -38.3     0.0     0.0     0.0   =     0.0    12.0
   2918     -1  1.089     0.0    18.7 99999.0         0.0    2918
  ST.FE-PCH013  -33.2     0.0     0.0     0.0   =     0.0    18.7




 RELATORIO DE GERADOR * AREA  13 * CEB                                 

 X------------X------X-----------------------X----X------X-------X
     BARRA     TENSAO         GERACAO         LIM. PARTIC  BARRA
  NUM.    TIPO   MOD     MIN     MW      MAX   MW    GER  CONTROL
      NOME       ANG     MIN    Mvar     MAX  Mvar  EQUIV   MVA
 X------------X------X-------X-------X-------X----X------X-------X

   3623     -1  0.997     0.0    17.0 99999.0         0.0    3623
  PARANOPCH013   14.7     0.5     0.5     0.5   =     0.0    17.0




 RELATORIO DE GERADOR * AREA  19 * ENGIE                               

 X------------X------X-----------------------X----X------X-------X
     BARRA     TENSAO         GERACAO         LIM. PARTIC  BARRA
  NUM.    TIPO   MOD     MIN     MW      MAX   MW    GER  CONTROL
      NOME       ANG     MIN    Mvar     MAX  Mvar  EQUIV   MVA
 X------------X------X-------X-------X-------X----X------X-------X

    915     -1  1.014     0.0     0.0 99999.0   I     0.0     915
  MACHADUHE000  -40.9     0.0     0.0     0.0   =     0.0     0.0
    917     -1  0.998     0.0     0.0   232.0   I     0.0     917
  PFUNDOUHE000  -42.6     0.0     0.0     0.0   =     0.0     0.0
    919     -1  0.992     0.0     0.0 99999.0   I     0.0     919
  SOSO14UHE000  -26.2     0.0     0.0     0.0   =     0.0     0.0
    920     -1  0.992     0.0     0.0 99999.0   I     0.0     920
  SOSO14SIN000  -26.2     0.0     0.0     0.0   =     0.0     0.0
    922     -1  0.992     0.0     0.0 99999.0   I     0.0     922
  SOSO56SIN000  -26.2     0.0     0.0     0.0   =     0.0     0.0
    925     -1  0.993     0.0     0.0  1420.0   I     0.0     925
  SSANTIUHE000  -27.9     0.0     0.0     0.0   =     0.0     0.0




 RELATORIO DE GERADOR * AREA  20 * ELETROSUL                           

 X------------X------X-----------------------X----X------X-------X
     BARRA     TENSAO         GERACAO         LIM. PARTIC  BARRA
  NUM.    TIPO   MOD     MIN     MW      MAX   MW    GER  CONTROL
      NOME       ANG     MIN    Mvar     MAX  Mvar  EQUIV   MVA
 X------------X------X-------X-------X-------X----X------X-------X

   9218     -1  0.979     0.0     0.0 99999.0   I     0.0    9218
  PSJOAOUHE000  -46.8     0.0     0.0     0.0   =     0.0     0.0




 RELATORIO DE GERADOR * AREA  21 * COPEL-GT                            

 X------------X------X-----------------------X----X------X-------X
     BARRA     TENSAO         GERACAO         LIM. PARTIC  BARRA
  NUM.    TIPO   MOD     MIN     MW      MAX   MW    GER  CONTROL
      NOME       ANG     MIN    Mvar     MAX  Mvar  EQUIV   MVA
 X------------X------X-------X-------X-------X----X------X-------X

    800     -1  0.996     0.0     0.0  1674.0   I     0.0     800
  GBMUNHUHE000  -31.4     0.0     0.0     0.0   =     0.0     0.0
    801     -1  0.996     0.0     0.0 99999.0   I     0.0     801
  GBMUNHSIN000  -31.4     0.0     0.0     0.0   =     0.0     0.0
    805     -1  0.974     0.0     0.0 99999.0   I     0.0     805
  GPSOUZSIN000  -40.7     0.0     0.0     0.0   =     0.0     0.0
    808     -1  0.990     0.0     0.0  1240.0   I     0.0     808
  GJRICHUHE000  -23.2     0.0     0.0     0.0   =     0.0     0.0
    809     -1  0.990     0.0     0.0 99999.0   I     0.0     809
  GJRICHSIN000  -23.2     0.0     0.0     0.0   =     0.0     0.0
CEPEL - Centro de Pesquisas de Energia Eletrica - ANAREDE V11.07.02

 ONS - MENSAL - JANEIRO 2020 - Leve                                              
 RELATORIO DE GERADOR * AREA  22 * COPEL-D                             

 X------------X------X-----------------------X----X------X-------X
     BARRA     TENSAO         GERACAO         LIM. PARTIC  BARRA
  NUM.    TIPO   MOD     MIN     MW      MAX   MW    GER  CONTROL
      NOME       ANG     MIN    Mvar     MAX  Mvar  EQUIV   MVA
 X------------X------X-------X-------X-------X----X------X-------X

   1053     -1  0.999     0.0     0.0 99999.0   I     0.0    1053
  TIBAGIUHE138  -27.6     0.0     0.0     0.0   =     0.0     0.0




 RELATORIO DE GERADOR * AREA  23 * CEEE-GT                             

 X------------X------X-----------------------X----X------X-------X
     BARRA     TENSAO         GERACAO         LIM. PARTIC  BARRA
  NUM.    TIPO   MOD     MIN     MW      MAX   MW    GER  CONTROL
      NOME       ANG     MIN    Mvar     MAX  Mvar  EQUIV   MVA
 X------------X------X-------X-------X-------X----X------X-------X

   1155     -1  0.994     0.0     0.0 99999.0   I     0.0    1155
  ITAUBAUHE000  -47.9     0.0     0.0     0.0   =     0.0     0.0
   1176     -1  0.992     0.0     0.0 99999.0   I     0.0    1176
  DFRANCUHE000  -48.1     0.0     0.0     0.0   =     0.0     0.0




 RELATORIO DE GERADOR * AREA  27 * EMAE                                

 X------------X------X-----------------------X----X------X-------X
     BARRA     TENSAO         GERACAO         LIM. PARTIC  BARRA
  NUM.    TIPO   MOD     MIN     MW      MAX   MW    GER  CONTROL
      NOME       ANG     MIN    Mvar     MAX  Mvar  EQUIV   MVA
 X------------X------X-------X-------X-------X----X------X-------X

    403     -1  0.980     0.0     0.0 99999.0   I     0.0     403
  PIR88-UTE000    0.0     0.0     0.0     0.0   =     0.0     0.0
    404     -1  0.974     0.0     0.0 99999.0   I     0.0     404
  PIR230UTE000  -26.9     0.0     0.0     0.0   =     0.0     0.0
    405     -1  0.998     0.0     0.0 99999.0   I     0.0     405
  NPIRA1UTE000  -26.9     0.0     0.0     0.0   =     0.0     0.0
    406     -1  0.996     0.0     0.0 99999.0   I     0.0     406
  NPIRA2UTE000  -28.5     0.0     0.0     0.0   =     0.0     0.0
   7452     -1  0.968     0.0     0.0 99999.0   I     0.0    7452
  HBORDEUHE000  -32.9     0.0     0.0     0.0   =     0.0     0.0
   7453     -1  0.968     0.0     0.0 99999.0   I     0.0    7453
  HBORDEUHE000  -32.9     0.0     0.0     0.0   =     0.0     0.0
   7454     -1  0.982     0.0    15.4    62.0         0.0    7454
  HBORDEUHE001  -26.3   -33.0    18.0    18.0   S     0.0    23.7
   7458     -1  0.954     0.0     0.0 99999.0   I     0.0    7458
  HBORDSUHE000  -27.8     0.0     0.0     0.0   =     0.0     0.0
   7459     -1  0.954     0.0     0.0 99999.0   I     0.0    7459
  HBORDSUHE000  -27.8     0.0     0.0     0.0   =     0.0     0.0
   7461     -1  0.968     0.0     0.0 99999.0   I     0.0    7461
  HBORDESIN000  -32.9     0.0     0.0     0.0   =     0.0     0.0
   7462     -1  0.968     0.0     0.0 99999.0   I     0.0    7462
  HBORDESIN000  -32.9     0.0     0.0     0.0   =     0.0     0.0
   7463     -1  0.968     0.0     0.0 99999.0   I     0.0    7463
  HBORDESIN000  -32.9     0.0     0.0     0.0   =     0.0     0.0
   7464     -1  0.954     0.0     0.0 99999.0   I     0.0    7464
  HBORDESIN000  -27.8     0.0     0.0     0.0   =     0.0     0.0
   7468     -1  0.954     0.0     0.0 99999.0   I     0.0    7468
  HBORDSSIN000  -27.8     0.0     0.0     0.0   =     0.0     0.0
   7469     -1  0.954     0.0     0.0 99999.0   I     0.0    7469
  HBORDSSIN000  -27.8     0.0     0.0     0.0   =     0.0     0.0




 RELATORIO DE GERADOR * AREA  30 * ELEKTRO                             

 X------------X------X-----------------------X----X------X-------X
     BARRA     TENSAO         GERACAO         LIM. PARTIC  BARRA
  NUM.    TIPO   MOD     MIN     MW      MAX   MW    GER  CONTROL
      NOME       ANG     MIN    Mvar     MAX  Mvar  EQUIV   MVA
 X------------X------X-------X-------X-------X----X------X-------X

   4138     -1  0.999     0.0     0.0 99999.0   I     0.0    4138
  CASTI-BIO138  -16.1     0.0     0.0     0.0   =     0.0     0.0
   4140     -1  1.006     0.0     0.0 99999.0   I     0.0    4140
  GUARI-BIO069   -4.0     0.0     0.0     0.0   =     0.0     0.0
   7630     -1  0.996     0.0     7.5 99999.0         0.0    7630
  AVERM-UFV034    1.7     0.0     0.0     0.0   =     0.0     7.5
   9126     -1  0.993     0.0     0.0 99999.0   I     0.0    9126
  RVERM-BIO138  -15.7     0.0     0.0     0.0   =     0.0     0.0




 RELATORIO DE GERADOR * AREA  34 * AES URUGUAIANA                      

 X------------X------X-----------------------X----X------X-------X
     BARRA     TENSAO         GERACAO         LIM. PARTIC  BARRA
  NUM.    TIPO   MOD     MIN     MW      MAX   MW    GER  CONTROL
      NOME       ANG     MIN    Mvar     MAX  Mvar  EQUIV   MVA
 X------------X------X-------X-------X-------X----X------X-------X

   1164     -1  0.975     0.0     0.0 99999.0   I     0.0    1164
  URUG-GUTE000  -50.0     0.0     0.0     0.0   =     0.0     0.0
   1165     -1  0.975     0.0     0.0 99999.0   I     0.0    1165
  URUG-VUTE000  -50.0     0.0     0.0     0.0   =     0.0     0.0




 RELATORIO DE GERADOR * AREA  37 * CPFL SANTA CRUZ                     

 X------------X------X-----------------------X----X------X-------X
     BARRA     TENSAO         GERACAO         LIM. PARTIC  BARRA
  NUM.    TIPO   MOD     MIN     MW      MAX   MW    GER  CONTROL
      NOME       ANG     MIN    Mvar     MAX  Mvar  EQUIV   MVA
 X------------X------X-------X-------X-------X----X------X-------X

   9115     -1  1.025     0.0     0.0 99999.0   I     0.0    9115
  IPAUS-BIO013  -25.6     0.0     0.0     0.0   =     0.0     0.0




 RELATORIO DE GERADOR * AREA  38 * DEMAIS AGENTES SC                   

 X------------X------X-----------------------X----X------X-------X
     BARRA     TENSAO         GERACAO         LIM. PARTIC  BARRA
  NUM.    TIPO   MOD     MIN     MW      MAX   MW    GER  CONTROL
      NOME       ANG     MIN    Mvar     MAX  Mvar  EQUIV   MVA
 X------------X------X-------X-------X-------X----X------X-------X

   9735     -1  1.016     0.0     0.0 99999.0   I     0.0    9735
  GARIBAUHE000  -42.9     0.0     0.0     0.0   =     0.0     0.0
   9747     -1  0.997     0.0     3.6 99999.0         0.0    9747
  OURO--PCH034  -42.5     0.0     0.0     0.0   =     0.0     3.6
   9749     -1  0.997     0.0     3.5 99999.0         0.0    9749
  MOINHOPCH034  -42.5     0.0     0.0     0.0   =     0.0     3.5




 RELATORIO DE GERADOR * AREA  39 * DEMAIS AGENTES RS                   

 X------------X------X-----------------------X----X------X-------X
     BARRA     TENSAO         GERACAO         LIM. PARTIC  BARRA
  NUM.    TIPO   MOD     MIN     MW      MAX   MW    GER  CONTROL
      NOME       ANG     MIN    Mvar     MAX  Mvar  EQUIV   MVA
 X------------X------X-------X-------X-------X----X------X-------X

    931     -1  0.958     0.0     0.0 99999.0   I     0.0     931
  MONJOLUHE000  -43.0     0.0     0.0     0.0   =     0.0     0.0
   1073     -1  0.988     0.0     0.0 99999.0   I     0.0    1073
  FCHAPESIN000  -38.1     0.0     0.0     0.0   =     0.0     0.0
   1152     -1  0.994     0.0     0.0 99999.0   I     0.0    1152
  CANO-GUTE000  -47.9     0.0     0.0     0.0   =     0.0     0.0
   1169     -1  0.994     0.0     0.0 99999.0   I     0.0    1169
  CANO-VUTE000  -47.9     0.0     0.0     0.0   =     0.0     0.0
   9220     -1  0.997     0.0     0.0 99999.0   I     0.0    9220
  SJOSE-UHE000  -48.4     0.0     0.0     0.0   =     0.0     0.0




 RELATORIO DE GERADOR * AREA  40 * LIGHT ENERGIA                       

 X------------X------X-----------------------X----X------X-------X
     BARRA     TENSAO         GERACAO         LIM. PARTIC  BARRA
  NUM.    TIPO   MOD     MIN     MW      MAX   MW    GER  CONTROL
      NOME       ANG     MIN    Mvar     MAX  Mvar  EQUIV   MVA
 X------------X------X-------X-------X-------X----X------X-------X

    259     -1  1.072     0.0     0.0 99999.0   I     0.0     259
  SCECIL-RJ013  -38.5     0.0     0.0     0.0   =     0.0     0.0
    261     -1  1.076     0.0     0.0 99999.0   I     0.0     261
  VIGARI-RJ013  -38.4     0.0     0.0     0.0   =     0.0     0.0




 RELATORIO DE GERADOR * AREA  41 * DEMAIS AGENTES RJ/ES                

 X------------X------X-----------------------X----X------X-------X
     BARRA     TENSAO         GERACAO         LIM. PARTIC  BARRA
  NUM.    TIPO   MOD     MIN     MW      MAX   MW    GER  CONTROL
      NOME       ANG     MIN    Mvar     MAX  Mvar  EQUIV   MVA
 X------------X------X-------X-------X-------X----X------X-------X

   1711     -1  1.022     0.0     7.7 99999.0         0.0    1711
  CALHE-PCH013  -47.7     0.0     0.0     0.0   =     0.0     7.7
   1767     -1  0.996     0.0    20.6 99999.0         0.0    1767
  S.ROSAPCH013  -37.5     0.0     0.0     0.0   =     0.0    20.6
   3523     -1  1.031     0.0     0.0 99999.0   I     0.0    3523
  ELTB-VUTE000  -33.0     0.0     0.0     0.0   =     0.0     0.0
   3974     -1  1.031     0.0     0.0 99999.0   I     0.0    3974
  ELTB-GUTE000  -33.0     0.0     0.0     0.0   =     0.0     0.0
   3977     -1  1.009     0.0     0.0 99999.0   I     0.0    3977
  MERCHAUTE000  -34.1     0.0     0.0     0.0   =     0.0     0.0
   3978     -1  1.009     0.0     0.0 99999.0   I     0.0    3978
  MERCH-UTE000  -34.1     0.0     0.0     0.0   =     0.0     0.0
CEPEL - Centro de Pesquisas de Energia Eletrica - ANAREDE V11.07.02

 ONS - MENSAL - JANEIRO 2020 - Leve                                              
 RELATORIO DE GERADOR * AREA  41 * DEMAIS AGENTES RJ/ES                

 X------------X------X-----------------------X----X------X-------X
     BARRA     TENSAO         GERACAO         LIM. PARTIC  BARRA
  NUM.    TIPO   MOD     MIN     MW      MAX   MW    GER  CONTROL
      NOME       ANG     MIN    Mvar     MAX  Mvar  EQUIV   MVA
 X------------X------X-------X-------X-------X----X------X-------X

   3999     -1  1.072     0.0    14.6 99999.0         0.0    3999
  PARACAPCH013  -33.5     0.0     0.0     0.0   =     0.0    14.6
   4205     -1  0.993     0.0     0.0 99999.0   I     0.0    4205
  TRV28-UTE000  -30.6     0.0     0.0     0.0   =     0.0     0.0
   4206     -1  0.998     0.0     0.0 99999.0   I     0.0    4206
  TRG212UTE000  -33.0     0.0     0.0     0.0   =     0.0     0.0
   4207     -1  0.998     0.0     0.0 99999.0   I     0.0    4207
  TRG313UTE000  -33.0     0.0     0.0     0.0   =     0.0     0.0
   4208     -1  0.998     0.0     0.0 99999.0   I     0.0    4208
  TRV38-UTE000  -33.0     0.0     0.0     0.0   =     0.0     0.0
   8910     -1  1.030     0.0     0.0 99999.0   I     0.0    8910
  VIANA1UTE000  -38.8     0.0     0.0     0.0   =     0.0     0.0
   8911     -1  1.030     0.0     0.0 99999.0   I     0.0    8911
  VIANA2UTE000  -38.8     0.0     0.0     0.0   =     0.0     0.0
   9627     -1  0.998     0.0     0.0 99999.0   I     0.0    9627
  BFLUMGUTE000  -26.4     0.0     0.0     0.0   =     0.0     0.0
   9628     -1  0.998     0.0     0.0 99999.0   I     0.0    9628
  BFLUMVUTE000  -26.4     0.0     0.0     0.0   =     0.0     0.0




 RELATORIO DE GERADOR * AREA  44 * ELETRONUCLEAR                       

 X------------X------X-----------------------X----X------X-------X
     BARRA     TENSAO         GERACAO         LIM. PARTIC  BARRA
  NUM.    TIPO   MOD     MIN     MW      MAX   MW    GER  CONTROL
      NOME       ANG     MIN    Mvar     MAX  Mvar  EQUIV   MVA
 X------------X------X-------X-------X-------X----X------X-------X

     10     -1  0.968     0.0     0.0 99999.0   I     0.0      10
  ANGRA1UNE000  -23.3     0.0     0.0     0.0   =     0.0     0.0




 RELATORIO DE GERADOR * AREA  46 * ENERGISA (MATO GROSSO)              

 X------------X------X-----------------------X----X------X-------X
     BARRA     TENSAO         GERACAO         LIM. PARTIC  BARRA
  NUM.    TIPO   MOD     MIN     MW      MAX   MW    GER  CONTROL
      NOME       ANG     MIN    Mvar     MAX  Mvar  EQUIV   MVA
 X------------X------X-------X-------X-------X----X------X-------X

   3543     -1  1.000     0.0     1.0 99999.0         0.0    3543
  EGIDI-UTE034   59.3     0.0     0.0     0.0   =     0.0     1.0
   3544     -1  0.997     0.0     4.0 99999.0         0.0    3544
  AGUAQ-PCH034   62.5     0.0     0.0     0.0   =     0.0     4.0
   3547     -1  1.040     0.0    25.0 99999.0         0.0    3547
  JUI---PCH138   65.2     0.0     0.0     0.0   =     0.0    25.0
   3551     -1  1.054     0.0     3.6 99999.0         0.0    3551
  CARAM-PCH034   38.4     0.0     0.0     0.0   =     0.0     3.6
   4776     -1  0.990     0.0     0.0 99999.0   I     0.0    4776
  PRIMA-PCH013   18.1     0.0     0.0     0.0   =     0.0     0.0
   4851     -1  1.008     0.0     4.0 99999.0         0.0    4851
  JUINA--MT138   48.8     0.0     0.0     0.0   =     0.0     4.0




 RELATORIO DE GERADOR * AREA  47 * ENORTE (AC/RO)                      

 X------------X------X-----------------------X----X------X-------X
     BARRA     TENSAO         GERACAO         LIM. PARTIC  BARRA
  NUM.    TIPO   MOD     MIN     MW      MAX   MW    GER  CONTROL
      NOME       ANG     MIN    Mvar     MAX  Mvar  EQUIV   MVA
 X------------X------X-------X-------X-------X----X------X-------X

   6832     -1  1.007     0.0     0.0 99999.0   I     0.0    6832
  ROND2-UTE000   53.5     0.0     0.0     0.0   =     0.0     0.0
   6912     -1  0.979     0.0     0.0 99999.0   I     0.0    6900
  T.N2-GUTE000   73.3     0.0     0.0     0.0   =     0.0     0.0
   6913     -1  0.979     0.0     0.0 99999.0   I     0.0    6900
  T.N2-VUTE000   73.3     0.0     0.0     0.0   =     0.0     0.0




 RELATORIO DE GERADOR * AREA  48 * DEMAIS AGENTES AC/RO                

 X------------X------X-----------------------X----X------X-------X
     BARRA     TENSAO         GERACAO         LIM. PARTIC  BARRA
  NUM.    TIPO   MOD     MIN     MW      MAX   MW    GER  CONTROL
      NOME       ANG     MIN    Mvar     MAX  Mvar  EQUIV   MVA
 X------------X------X-------X-------X-------X----X------X-------X

   7001     -1  0.989     0.0     0.0 99999.0   I     0.0    7001
  RACRE2UTE000   60.7     0.0     0.0     0.0   =     0.0     0.0




 RELATORIO DE GERADOR * AREA  49 * DEMAIS AGENTES MT                   

 X------------X------X-----------------------X----X------X-------X
     BARRA     TENSAO         GERACAO         LIM. PARTIC  BARRA
  NUM.    TIPO   MOD     MIN     MW      MAX   MW    GER  CONTROL
      NOME       ANG     MIN    Mvar     MAX  Mvar  EQUIV   MVA
 X------------X------X-------X-------X-------X----X------X-------X

   3549     -1  1.017     0.0    20.0 99999.0         0.0    3549
  INPAS-UTE013   42.1     0.0     0.0     0.0   =     0.0    20.0
   4403     -1  1.017     0.0     7.3 99999.0         0.0    4403
  APRAT-PCH034   35.9     0.0     0.0     0.0   =     0.0     7.3
   4404     -1  1.011     0.0     7.8 99999.0         0.0    4404
  ABRAV-PCH034   35.2     0.0     0.0     0.0   =     0.0     7.8
   4405     -1  1.011     0.0     0.0 99999.0   I     0.0    4405
  ACLAR-PCH034   35.1     0.0     0.0     0.0   =     0.0     0.0
   4416     -1  1.002     0.0    19.7 99999.0         0.0    4416
  PAMPEAPCH069   45.3     0.0     0.0     0.0   =     0.0    19.7
   4424     -1  1.003     0.0    18.7 99999.0         0.0    4424
  TERSANPCH013   45.5     0.0     0.0     0.0   =     0.0    18.7
   4430     -1  0.998     0.0    13.3 99999.0         0.0    4430
  CIDEZAPCH013   54.1     0.0     0.0     0.0   =     0.0    13.3
   4434     -1  0.997     0.0     0.0 99999.0   I     0.0    4434
  SAPEZAPCH013   51.4     0.0     0.0     0.0   =     0.0     0.0
   4436     -1  0.997     0.0     8.1 99999.0         0.0    4436
  DIVISAPCH013   54.5     0.0     0.0     0.0   =     0.0     8.1
   4438     -1  0.995     0.0    19.1 99999.0         0.0    4438
  SEGREDPCH013   53.9     0.0     0.0     0.0   =     0.0    19.1
   4440     -1  0.995     0.0    13.8 99999.0         0.0    4440
  ILHCOMPCH013   53.5     0.0     0.0     0.0   =     0.0    13.8
   4442     -1  0.994     0.0    12.3 99999.0         0.0    4442
  PAREC-PCH013   52.9     0.0     0.0     0.0   =     0.0    12.3
   4444     -1  0.999     0.0    10.2 99999.0         0.0    4444
  ROMDOMPCH013   54.5     0.0     0.0     0.0   =     0.0    10.2
   4446     -1  1.000     0.0    27.7 99999.0         0.0    4446
  TELEG-PCH013   55.7     0.0     0.0     0.0   =     0.0    27.7
   4460     -1  0.990     0.0    17.7 99999.0         0.0    4460
  BOCAIUPCH013   51.9     0.0     0.0     0.0   =     0.0    17.7
   4596     -1  0.996     0.0     0.0 99999.0   I     0.0    4596
  CBA-G-UTE000   26.9     0.0     0.0     0.0   =     0.0     0.0
   4597     -1  0.996     0.0     0.0 99999.0   I     0.0    4597
  CBA-V-UTE000   26.9     0.0     0.0     0.0   =     0.0     0.0
   4600     -1  0.991     0.0    12.7 99999.0         0.0    4600
  JOSEG-PCH138   26.6     0.0     0.0     0.0   =     0.0    12.7
   4603     -1  0.991     0.0    16.2 99999.0         0.0    4603
  ROMDO-PCH138   26.6     0.0     0.0     0.0   =     0.0    16.2
   4604     -1  1.029     0.0     4.4 99999.0         0.0    4604
  JONASPPCH013   41.4     0.0     0.0     0.0   =     0.0     4.4
   4605     -1  1.019     0.0    22.4 99999.0         0.0    4605
  SLOUREPCH013   36.7     0.0     0.0     0.0   =     0.0    22.4
   4609     -1  1.021     0.0    13.1 99999.0         0.0    4609
  7QUED-PCH013   36.0     0.0     0.0     0.0   =     0.0    13.1
   4616     -1  0.977     0.0     8.1 99999.0         0.0    4616
  LAJARIPCH138   21.0     0.0     0.0     0.0   =     0.0     8.1
   4617     -1  0.955     0.0     0.0 99999.0   I     0.0    4617
  AGREN-BIO013    0.0     0.0     0.0     0.0   =     0.0     0.0
   4631     -1  1.031     0.0    22.9 99999.0         0.0    4631
  SGABR-PCH013   35.3     0.0     0.0     0.0   =     0.0    22.9
   4638     -1  1.008     0.0    14.0 99999.0         0.0    4638
  STADE-PCH013   32.8     0.0     0.0     0.0   =     0.0    14.0
   4649     -1  0.988     0.0     3.8 99999.0         0.0    4649
  SUCUP-PCH013   41.8     0.0     0.0     0.0   =     0.0     3.8
   4650     -1  0.990     0.0     5.5 99999.0         0.0    4650
  PEQUI-PCH013   42.3     0.0     0.0     0.0   =     0.0     5.5
   4651     -1  0.996     0.0    10.8 99999.0         0.0    4651
  GUACU-BIO034   59.8     0.0     0.0     0.0   =     0.0    10.8
   4688     -1  1.030     0.0     0.7 99999.0         0.0    4688
  GLORI-PCH013   40.7     0.0     0.0     0.0   =     0.0     0.7
   4691     -1  1.023     0.0     1.0 99999.0         0.0    4691
  MESTREPCH013   38.8     0.0     0.0     0.0   =     0.0     1.0
   4692     -1  1.023     0.0     1.9 99999.0         0.0    4692
  S.CECIPCH013   39.3     0.0     0.0     0.0   =     0.0     1.9
   4697     -1  0.989     0.0     2.3 99999.0         0.0    4697
  CAMBA-PCH013   41.1     0.0     0.0     0.0   =     0.0     2.3
   4698     -1  0.988     0.0     3.0 99999.0         0.0    4698
  EMBAU-PCH013   41.6     0.0     0.0     0.0   =     0.0     3.0
   4757     -2  1.014     0.0     8.5     8.1   S     0.0    4757
  CASC3-PCH013   25.9     0.0     0.0     0.0   =     0.0     8.5
   4758     -1  1.008     0.0     4.4 99999.0         0.0    4758
  CASC2-PCH013   22.7     0.0     0.0     0.0   =     0.0     4.4
   4800     -1  1.019     0.0    12.1 99999.0         0.0    4800
  FIGUE-PCH138   39.3     0.0     0.0     0.0   =     0.0    12.1
   4834     -1  0.993     0.0    29.4 99999.0         0.0    4834
  SACR2-PCH013   52.4     0.0     0.0     0.0   =     0.0    29.4
   4867     -1  1.018     0.0    19.5    19.5   S     0.0    4867
  ABRE--PCH138   41.1    -6.4    -6.4     9.4   I     0.0    20.5
   4877     -1  1.007     0.0    18.2 99999.0         0.0    4877
  SCOR--PCH138   41.2     0.0     0.0     0.0   =     0.0    18.2
   4881     -1  0.995     0.0    11.0 99999.0         0.0    4881
  SLUCI-PCH013   61.9     0.0     0.0     0.0   =     0.0    11.0
   4917     -1  0.992     0.0    28.2 99999.0         0.0    4917
  CANOAQPCH069   50.2     0.0     0.0     0.0   =     0.0    28.2
   4996     -1  0.999     0.0     8.9 99999.0         0.0    4996
  BURITIPCH013   71.7     0.0     0.0     0.0   =     0.0     8.9
CEPEL - Centro de Pesquisas de Energia Eletrica - ANAREDE V11.07.02

 ONS - MENSAL - JANEIRO 2020 - Leve                                              
 RELATORIO DE GERADOR * AREA  51 * COMPLEXO PAF + UAS  + ULG + UX      

 X------------X------X-----------------------X----X------X-------X
     BARRA     TENSAO         GERACAO         LIM. PARTIC  BARRA
  NUM.    TIPO   MOD     MIN     MW      MAX   MW    GER  CONTROL
      NOME       ANG     MIN    Mvar     MAX  Mvar  EQUIV   MVA
 X------------X------X-------X-------X-------X----X------X-------X

   5006     -1  1.016     0.0     0.0 99999.0   I     0.0    5006
  PAFO1GUHE000   23.1     0.0     0.0     0.0   =     0.0     0.0
   5009     -1  1.017     0.0     0.0 99999.0   I     0.0    5009
  PAF2G1UHE000   23.1     0.0     0.0     0.0   =     0.0     0.0
   5010     -1  1.016     0.0     0.0 99999.0   I     0.0    5010
  PAF2G2UHE000   22.8     0.0     0.0     0.0   =     0.0     0.0
   5011     -1  1.017     0.0     0.0 99999.0   I     0.0    5011
  PAF2G3UHE000   23.1     0.0     0.0     0.0   =     0.0     0.0
   5012     -1  1.017     0.0     0.0 99999.0   I     0.0    5012
  PAF2G4UHE000   23.1     0.0     0.0     0.0   =     0.0     0.0
   5013     -1  1.017     0.0     0.0 99999.0   I     0.0    5013
  PAF2G5UHE000   23.1     0.0     0.0     0.0   =     0.0     0.0
   5014     -1  1.017     0.0     0.0 99999.0   I     0.0    5014
  PAF2G6UHE000   23.1     0.0     0.0     0.0   =     0.0     0.0
   5015     -1  0.970     0.0     0.0 99999.0   I     0.0    5015
  PAF3G1UHE000   23.1     0.0     0.0     0.0   =     0.0     0.0
   5016     -1  0.996     0.0     0.0 99999.0   I     0.0    5016
  PAF3G2UHE000   23.1     0.0     0.0     0.0   =     0.0     0.0
   5030     -1  0.970     0.0     0.0 99999.0   I     0.0    5030
  ASALG1UHE000   23.1     0.0     0.0     0.0   =     0.0     0.0
   5032     -1  0.969     0.0     0.0 99999.0   I     0.0    5032
  ASALG3UHE000   23.1     0.0     0.0     0.0   =     0.0     0.0




 RELATORIO DE GERADOR * AREA  53 * SUDOESTE DA BAHIA                   

 X------------X------X-----------------------X----X------X-------X
     BARRA     TENSAO         GERACAO         LIM. PARTIC  BARRA
  NUM.    TIPO   MOD     MIN     MW      MAX   MW    GER  CONTROL
      NOME       ANG     MIN    Mvar     MAX  Mvar  EQUIV   MVA
 X------------X------X-------X-------X-------X----X------X-------X

   6222     -1  0.979     0.0     0.0 99999.0   I     0.0    6222
  IGT012EOL000   47.9     0.0     0.0     0.0   =     0.0     0.0
   6223     -1  1.006     0.0     0.0 99999.0   I     0.0    6223
  PND012EOL000   30.5     0.0     0.0     0.0   =     0.0     0.0
   6276     -1  0.992     0.0     0.0 99999.0   I     0.0    6276
  REPIF1EOL012   55.0     0.0     0.0     0.0   =     0.0     0.0
   6277     -1  0.989     0.0     0.0 99999.0   I     0.0    6277
  REPIF2EOL002   53.1     0.0     0.0     0.0   =     0.0     0.0
   6278     -1  0.987     0.0     0.0 99999.0   I     0.0    6278
  REPIA1EOL003   55.1     0.0     0.0     0.0   =     0.0     0.0
   6279     -1  0.995     0.0     0.0 99999.0   I     0.0    6279
  REPIA2EOL021   57.5     0.0     0.0     0.0   =     0.0     0.0
   6308     -1  0.984     0.0    77.2    77.2   S     0.0    6308
  SENSE2EOL053   47.6   -19.1   -19.1    19.1   I     0.0    79.5
   6314     -1  1.014     0.0     0.0 99999.0   I     0.0    6314
  PET---UTE000   27.4     0.0     0.0     0.0   =     0.0     0.0
   6503     -1  1.000     0.0     0.0 99999.0   I     0.0    6503
  JUAZE3-BA069   28.2     0.0     0.0     0.0   =     0.0     0.0
   6625     -1  0.980     0.0     0.0 99999.0   I     0.0    6625
  ACACIAEOL000   47.4     0.0     0.0     0.0   =     0.0     0.0




 RELATORIO DE GERADOR * AREA  54 * AREA SUL                            

 X------------X------X-----------------------X----X------X-------X
     BARRA     TENSAO         GERACAO         LIM. PARTIC  BARRA
  NUM.    TIPO   MOD     MIN     MW      MAX   MW    GER  CONTROL
      NOME       ANG     MIN    Mvar     MAX  Mvar  EQUIV   MVA
 X------------X------X-------X-------X-------X----X------X-------X

   5700     -1  1.024     0.0     0.0 99999.0   I     0.0    5700
  PSERGGUTE000   18.0     0.0     0.0     0.0   =     0.0     0.0
   5762     -1  1.003     0.0     0.0 99999.0   I     0.0    5762
  AREMBEUTE000   11.6     0.0     0.0     0.0   =     0.0     0.0
   5764     -1  1.003     0.0     0.0 99999.0   I     0.0    5764
  MURICIUTE000   11.6     0.0     0.0     0.0   =     0.0     0.0
   5771     -1  0.983     0.0     0.0 99999.0   I     0.0    5771
  CMDBP2SIN000   12.9     0.0     0.0     0.0   =     0.0     0.0
   5800     -1  1.024     0.0     0.0 99999.0   I     0.0    5800
  PSERGVUTE000   18.0     0.0     0.0     0.0   =     0.0     0.0
   5820     -1  0.998     0.0     0.0 99999.0   I     0.0    5820
  GLOBA1UTE000   10.9     0.0     0.0     0.0   =     0.0     0.0
   5823     -1  0.998     0.0     0.0 99999.0   I     0.0    5823
  GLOBA2UTE000   10.9     0.0     0.0     0.0   =     0.0     0.0
   5827     -1  0.997     0.0     0.0 99999.0   I     0.0    5827
  CFURTAUTE000   10.8     0.0     0.0     0.0   =     0.0     0.0
   5888     -1  0.992     0.0     0.0 99999.0   I     0.0    5888
  P.CAVAUHE000   14.1     0.0     0.0     0.0   =     0.0     0.0
   5920     -1  0.956     0.0     0.0 99999.0   I     0.0    5920
  UFL01GUHE003   -1.9     0.0     0.0     0.0   =     0.0     0.0
   5921     -1  0.956     0.0     0.0 99999.0   I     0.0    5921
  UFL02GUHE000   -1.9     0.0     0.0     0.0   =     0.0     0.0
   5922     -1  0.956     0.0     0.0 99999.0   I     0.0    5922
  UFL03GUHE000   -1.9     0.0     0.0     0.0   =     0.0     0.0
   5975     -1  1.012     0.0     0.0 99999.0   I     0.0    5975
  ITAPEBUHE000   -5.1     0.0     0.0     0.0   =     0.0     0.0
   6104     -1  1.007     0.0     0.0 99999.0   I     0.0    6104
  PROSP-UTE000   11.9     0.0     0.0     0.0   =     0.0     0.0




 RELATORIO DE GERADOR * AREA  55 * AREA LESTE                          

 X------------X------X-----------------------X----X------X-------X
     BARRA     TENSAO         GERACAO         LIM. PARTIC  BARRA
  NUM.    TIPO   MOD     MIN     MW      MAX   MW    GER  CONTROL
      NOME       ANG     MIN    Mvar     MAX  Mvar  EQUIV   MVA
 X------------X------X-------X-------X-------X----X------X-------X

   5078     -1  0.997     0.0    28.3    28.3   S     0.0    5078
  CUTIABEOL050   31.6    -7.6     7.6     7.6   S     0.0    29.3
   5126     -1  1.000     0.0    29.4    29.4   S     0.0    5126
  CUTIACEOL052   31.3   -20.7    20.7    20.7   S     0.0    36.0
   5134     -1  1.014     0.0     0.0 99999.0   I     0.0    5134
  TCB---UTE000   17.8     0.0     0.0     0.0   =     0.0     0.0
   5178     -1  1.012     0.0     0.0 99999.0   I     0.0    5178
  PEIII-UTE000   19.4     0.0     0.0     0.0   =     0.0     0.0
   5187     -1  1.012     0.0     0.0 99999.0   I     0.0    5187
  PFERROUTE000   19.4     0.0     0.0     0.0   =     0.0     0.0
   5188     -1  1.012     0.0     0.0 99999.0   I     0.0    5188
  TMANAUUTE000   19.4     0.0     0.0     0.0   =     0.0     0.0
   5218     -1  0.971     0.0     0.0 99999.0   I     0.0    5218
  UTEPB-UTE000   12.9     0.0     0.0     0.0   =     0.0     0.0
   5219     -1  0.971     0.0     0.0 99999.0   I     0.0    5219
  UTENE-UTE000   12.9     0.0     0.0     0.0   =     0.0     0.0
   5220     -1  1.015     0.0     0.0 99999.0   I     0.0    5220
  CGRAN-UTE000   21.7     0.0     0.0     0.0   =     0.0     0.0
   5240     -1  1.000     0.0     0.0 99999.0   I     0.0    5240
  POT1--UTE000   21.3     0.0     0.0     0.0   =     0.0     0.0
   5242     -1  1.000     0.0     0.0 99999.0   I     0.0    5242
  POT3--UTE000   21.3     0.0     0.0     0.0   =     0.0     0.0
   5459     -1  0.972     0.0    40.9 99999.0         0.0    5459
  ALEGRIEOL092   31.2   -46.4   -46.4   -46.4   =     0.0    61.9
   5466     -1  1.037     0.0     0.0 99999.0   I     0.0    5466
  UJSP--UTE000   25.6     0.0     0.0     0.0   =     0.0     0.0
   5916     -1  1.064     0.0     0.0 99999.0   I     0.0    5916
  VSMEL2EOL036   26.3     0.0     0.0     0.0   =     0.0     0.0
   6021     -1  0.999     0.0     0.0 99999.0   I     0.0    6021
  SUP1--UTE000   21.1     0.0     0.0     0.0   =     0.0     0.0
   6022     -1  0.999     0.0     0.0 99999.0   I     0.0    6022
  SUP2--UTE000   21.1     0.0     0.0     0.0   =     0.0     0.0
   6023     -1  0.999     0.0     0.0 99999.0   I     0.0    6023
  SUP3--UTE000   21.1     0.0     0.0     0.0   =     0.0     0.0
   6024     -1  0.999     0.0     0.0 99999.0   I     0.0    6024
  SUP4--UTE000   21.1     0.0     0.0     0.0   =     0.0     0.0
   6025     -1  0.999     0.0     0.0 99999.0   I     0.0    6025
  SUP5--UTE000   21.1     0.0     0.0     0.0   =     0.0     0.0
   6026     -1  0.999     0.0     0.0 99999.0   I     0.0    6026
  SUP6--UTE000   21.1     0.0     0.0     0.0   =     0.0     0.0
   6067     -1  1.013     0.0     0.0 99999.0   I     0.0    6067
  CLEMNT-PE230   25.7     0.0     0.0     0.0   =     0.0     0.0
   6751     -1  1.058     0.0     0.0 99999.0   I     0.0    6751
  VSMEL1EOL038   26.4     0.0     0.0     0.0   =     0.0     0.0
   8141     -1  1.061     0.0     0.0   134.4   I     0.0    8141
  ECH6-7EOL032   26.3     0.0     0.0     0.0   =     0.0     0.0
   8295     -1  1.058     0.0     0.0   138.6   I     0.0    8295
  ECH3-6EOL033   26.4     0.0     0.0     0.0   =     0.0     0.0
   8343     -1  1.051     0.0     0.0 99999.0   I     0.0    8343
  V.ALAGEOL000    0.0     0.0     0.0     0.0   =     0.0     0.0




 RELATORIO DE GERADOR * AREA  56 * AREA NORTE                          

 X------------X------X-----------------------X----X------X-------X
     BARRA     TENSAO         GERACAO         LIM. PARTIC  BARRA
  NUM.    TIPO   MOD     MIN     MW      MAX   MW    GER  CONTROL
      NOME       ANG     MIN    Mvar     MAX  Mvar  EQUIV   MVA
 X------------X------X-------X-------X-------X----X------X-------X

   5315     -1  1.004     0.0     0.0     1.0   I     0.0    5315
  RIOALTUFV000   22.0     0.0     0.0     0.0   =     0.0     0.0
   5443     -1  1.031     0.0     6.0     6.0   S     0.0    5443
  MSD----RN069   20.6     0.0    20.0    20.0   S     0.0    20.9
   5460     -1  1.014     0.0     0.0 99999.0   I     0.0    5460
  MRU---UTE000   21.5     0.0     0.0     0.0   =     0.0     0.0
   5654     -1  0.995     0.0     0.0   214.0   I     0.0    5654
  T.FTZGUTE000   24.8     0.0     0.0     0.0   =     0.0     0.0
   5655     -1  0.995     0.0     0.0   110.0   I     0.0    5655
  T.FTZVUTE000   24.8     0.0     0.0     0.0   =     0.0     0.0
   5659     -1  0.996     0.0     0.0 99999.0   I     0.0    5659
  PPD---UTE000   29.4     0.0     0.0     0.0   =     0.0     0.0
   5660     -1  0.995     0.0     0.0 99999.0   I     0.0    5660
  TERMOCUTE000   24.8     0.0     0.0     0.0   =     0.0     0.0
   5901     -1  1.016     0.0     0.0     8.4   I     0.0    5901
  VILAACEOL000   26.6     0.0     0.0     0.0   =     0.0     0.0
   6053     -1  1.022     0.0     0.0 99999.0   I     0.0    6053
  JANDAIEOL000    0.0     0.0     0.0     0.0   =     0.0     0.0
CEPEL - Centro de Pesquisas de Energia Eletrica - ANAREDE V11.07.02

 ONS - MENSAL - JANEIRO 2020 - Leve                                              
 RELATORIO DE GERADOR * AREA  57 * AREA OESTE                          

 X------------X------X-----------------------X----X------X-------X
     BARRA     TENSAO         GERACAO         LIM. PARTIC  BARRA
  NUM.    TIPO   MOD     MIN     MW      MAX   MW    GER  CONTROL
      NOME       ANG     MIN    Mvar     MAX  Mvar  EQUIV   MVA
 X------------X------X-------X-------X-------X----X------X-------X

   5298     -1  0.991     0.0     0.0 99999.0   I     0.0    5298
  FASEIIEOL077   41.2     0.0     0.0     0.0   =     0.0     0.0
   5522     -1  0.998     0.0     0.0 99999.0   I     0.0    5522
  UBE2--UHE000   30.6     0.0     0.0     0.0   =     0.0     0.0
...